LAMMPS (11 Aug 2017)
# Ar in metal units

# simulation params in reduced units
# settable from command line
# epsilon, sigma, mass set below

variable	x index 5
variable	y index 5
variable	z index 5
variable        rhostar index 0.8842
variable        dt index 0.005
variable        cutoff index 2.5
variable        skin index 0.3
variable        tinitial index 1.0
variable        nthermo index 1000
variable        nsteps index 10000

# physical constants from update.cpp

variable        kb index 8.617343e-5          # kB in eV/K
variable        avogadro index 6.02214129e23  # Avogadro's number

# Ar properties in metal units

variable        epskb index 117.7             # LJ epsilon/kB in degrees K
variable        sigma index 3.504             # LJ sigma in Angstroms
variable        epsilon equal 117.7*8.617343e-5
variable        mass index 39.95              # mass in g/mole

# scale factors

# sigma = scale factor on distance, converts reduced distance to Angs
# epsilon = scale factor on energy, converts reduced energy to eV
# tmpscale = scale factor on temperature, converts reduced temp to degrees K
# tscale = scale factor on time, converts reduced time to ps
#   formula is t = t* / sqrt(epsilon/mass/sigma^2), but need t in fs
#   use epsilon (Joule), mass (kg/atom), sigma (meter) to get t in seconds
# pscale = scale factor on pressure, converts reduced pressure to bars
#   formula is P = P* / (sigma^3/epsilon), but need P in atmospheres
#   use sigma (meter), epsilon (Joule) to get P in nt/meter^2, convert to bars

variable        eVtoJoule index 1.602e-19     # convert eV to Joules
variable        NtMtoAtm equal 1.0e-5         # convert Nt/meter^2 to bars

variable        tmpscale equal 117.7
variable        epsilonJ equal 0.010142612711*1.602e-19
variable        massKgAtom equal 39.95/1000.0/6.02214129e23
variable        sigmaM equal 3.504/1.0e10
variable        sigmaMsq equal 3.504e-10*3.504e-10
variable        tscale equal 1.0e12/sqrt(1.6248465563022e-21/6.6338529895236e-26/1.2278016e-19)
variable        sigmaM3 equal 3.504e-10*3.504e-10*3.504e-10
variable        pscale equal 1e-05/(4.3022168064e-29/(1.6248465563022e-21))

# variables
# alat = lattice constant in Angs (at reduced density rhostar)
# temp = reduced temperature for output
# epair,emol,etotal = reduced epair,emol,etotal energies for output
# press = reduced pressure for output

variable        alat equal (4.0*3.504*3.504*3.504/0.8842)^(1.0/3.0)
variable        temp equal temp/117.7
variable        epair equal epair/0.010142612711
variable        emol equal emol/0.010142612711
variable        etotal equal etotal/0.010142612711
variable        press equal press/377.676586146256

# same script as in.ar.lj

units		metal
atom_style	atomic

Lattice spacing in x,y,z = 5.795 5.795 5.795
region		box block 0 $x 0 $y 0 $z
region		box block 0 5 0 $y 0 $z
region		box block 0 5 0 5 0 $z
region		box block 0 5 0 5 0 5
create_box	1 box
Created orthogonal box = (0 0 0) to (28.975 28.975 28.975)
create_atoms	1 box
Created 500 atoms
mass		1 39.95

velocity	all create 10. 12345 # $(v_tinitial*v_epskb) 12345

pair_style	lj/cut $(v_cutoff*v_sigma)
pair_style	lj/cut 8.7599999999999997868
pair_coeff	1 1 0.010142612711 3.504

neighbor	$(v_skin*v_sigma) bin
neighbor	1.0511999999999999122 bin
neigh_modify	delay 0 every 20 check no

fix		1 all nve

timestep	0.001 # $(v_dt*v_tscale)

# columns 2,3,4 = temp,pe,press in metal units
# columns 5-9 = temp,energy.press in reduced units, compare to in.ar.lj
# need to include metal unit output to enable use of reduced variables

thermo_style    custom step time temp ke pe etotal press cpu
thermo_modify	norm yes
thermo		1000

run		10000
  update every 20 steps, delay 0 steps, check no
Step Time Temp KinEng PotEng TotEng Press CPU
0            0           10 0.0012900162 -0.072045884 -0.070755867   -2239.5453            0
Averages over the last 6 of 11 rows, steps 5000 to 10000:
Temp KinEng PotEng TotEng Press
4.90389 0.000632609 -0.0713902 -0.0707576 -2105.61
Loop time of 2.86164 on 1 procs for 10000 steps with 500 atoms
